<configuration>

<input>
<net-file value="threelanes.net.xml"/>
<route-files value="threelanes.rou.xml"/>
</input>






</configuration>
