<?xml version="1.0" encoding="UTF-8"?>

<!-- generated on 2023-05-30 13:00:17 by Eclipse SUMO netedit Version 1.15.0
<configuration xmlns:xsi="http://www.w3.org/2001/XMLSchema-instance" xsi:noNamespaceSchemaLocation="http://sumo.dlr.de/xsd/netconvertConfiguration.xsd">

    <input>
        <sumo-net-file value="/home/r10922a06/Desktop/sumo2/sumo/project/controller_attack/overtake.net.xml"/>
    </input>

    <output>
        <output-file value="/home/r10922a06/Desktop/sumo2/sumo/project/controller_attack/overtake.net.xml"/>
    </output>

    <processing>
        <geometry.min-radius.fix.railways value="false"/>
        <geometry.max-grade.fix value="false"/>
        <offset.disable-normalization value="true"/>
        <lefthand value="0"/>
    </processing>

    <junctions>
        <no-internal-links value="true"/>
        <no-turnarounds value="true"/>
        <junctions.corner-detail value="5"/>
        <junctions.limit-turn-speed value="5.50"/>
        <rectangular-lane-cut value="0"/>
    </junctions>

    <pedestrian>
        <walkingareas value="0"/>
    </pedestrian>

</configuration>
-->

<net version="1.9" junctionCornerDetail="5" limitTurnSpeed="5.50" xmlns:xsi="http://www.w3.org/2001/XMLSchema-instance" xsi:noNamespaceSchemaLocation="http://sumo.dlr.de/xsd/net_file.xsd">

    <location netOffset="0.00,0.00" convBoundary="0.00,100.00,1100.00,100.00" origBoundary="-10000000000.00,-10000000000.00,10000000000.00,10000000000.00" projParameter="!"/>

    <edge id="-E0" from="J2" to="J0" priority="-1">
        <lane id="-E0_0" index="0" speed="30.00" length="1100.00" shape="1100.00,104.80 0.00,104.80"/>
        <lane id="-E0_1" index="1" speed="30.00" length="1100.00" shape="1100.00,101.60 0.00,101.60"/>
    </edge>
    <edge id="E0" from="J0" to="J2" priority="-1" shape="0.00,100.00 500.00,100.00 900.00,100.00 1100.00,100.00">
        <lane id="E0_0" index="0" speed="30.00" length="1100.00" shape="0.00,95.20 500.00,95.20 900.00,95.20 1100.00,95.20"/>
        <lane id="E0_1" index="1" speed="30.00" length="1100.00" shape="0.00,98.40 500.00,98.40 900.00,98.40 1100.00,98.40"/>
    </edge>

    <junction id="J0" type="dead_end" x="0.00" y="100.00" incLanes="-E0_0 -E0_1" intLanes="" shape="0.00,100.00 0.00,106.40 0.00,100.00"/>
    <junction id="J2" type="dead_end" x="1100.00" y="100.00" incLanes="E0_0 E0_1" intLanes="" shape="1100.00,100.00 1100.00,93.60 1100.00,100.00"/>

</net>
