<?xml version="1.0" encoding="UTF-8"?>

<!-- generated on 2023-06-19 09:57:14 by Eclipse SUMO netedit Version 1.15.0
<configuration xmlns:xsi="http://www.w3.org/2001/XMLSchema-instance" xsi:noNamespaceSchemaLocation="http://sumo.dlr.de/xsd/netconvertConfiguration.xsd">

    <input>
        <sumo-net-file value="/home/r10922a06/Desktop/sumo2/sumo/project/controller_attack/roundabout_4.net.xml"/>
    </input>

    <output>
        <output-file value="/home/r10922a06/Desktop/sumo2/sumo/project/controller_attack/roundabout_4.net.xml"/>
    </output>

    <processing>
        <geometry.min-radius.fix.railways value="false"/>
        <geometry.max-grade.fix value="false"/>
        <offset.disable-normalization value="true"/>
        <lefthand value="0"/>
    </processing>

    <junctions>
        <no-turnarounds value="true"/>
        <junctions.corner-detail value="5"/>
        <junctions.limit-turn-speed value="5.50"/>
        <rectangular-lane-cut value="0"/>
    </junctions>

    <pedestrian>
        <walkingareas value="0"/>
    </pedestrian>

</configuration>
-->

<net version="1.9" junctionCornerDetail="5" limitTurnSpeed="5.50" xmlns:xsi="http://www.w3.org/2001/XMLSchema-instance" xsi:noNamespaceSchemaLocation="http://sumo.dlr.de/xsd/net_file.xsd">

    <location netOffset="0.00,0.00" convBoundary="-2.84,9.15,252.35,228.11" origBoundary="-10000000000.00,-10000000000.00,10000000000.00,10000000000.00" projParameter="!"/>

    <edge id=":J0_0" function="internal">
        <lane id=":J0_0_0" index="0" speed="6.63" length="8.59" shape="122.20,177.57 121.89,175.25 120.94,173.51 119.35,172.34 117.13,171.76"/>
    </edge>
    <edge id=":J0_1" function="internal">
        <lane id=":J0_1_0" index="0" speed="6.52" length="8.52" shape="130.57,172.00 128.31,172.50 126.70,173.59 125.73,175.29 125.40,177.57"/>
    </edge>
    <edge id=":J0_2" function="internal">
        <lane id=":J0_2_0" index="0" speed="13.89" length="13.17" shape="130.57,172.00 126.58,172.29 123.84,172.37 121.10,172.20 117.13,171.76"/>
        <lane id=":J0_2_1" index="1" speed="13.89" length="13.17" shape="130.32,168.81 126.52,169.09 123.90,169.16 121.29,169.00 117.50,168.58"/>
    </edge>
    <edge id=":J14_0" function="internal">
        <lane id=":J14_0_0" index="0" speed="6.63" length="7.95" shape="66.07,122.60 65.37,120.61 64.19,119.18 62.55,118.33 60.43,118.04"/>
    </edge>
    <edge id=":J14_1" function="internal">
        <lane id=":J14_1_0" index="0" speed="13.89" length="11.90" shape="66.07,122.60 65.37,118.97 65.13,116.43 65.33,113.88 65.95,110.23"/>
        <lane id=":J14_1_1" index="1" speed="13.89" length="11.90" shape="69.20,121.97 68.58,118.68 68.36,116.39 68.54,114.09 69.10,110.80"/>
    </edge>
    <edge id=":J14_3" function="internal">
        <lane id=":J14_3_0" index="0" speed="6.55" length="7.92" shape="60.43,114.84 62.54,114.55 64.16,113.69 65.30,112.25 65.95,110.23"/>
    </edge>
    <edge id=":J15_0" function="internal">
        <lane id=":J15_0_0" index="0" speed="6.69" length="8.07" shape="128.94,57.98 129.23,60.14 130.10,61.82 131.54,63.02 133.55,63.73"/>
    </edge>
    <edge id=":J15_1" function="internal">
        <lane id=":J15_1_0" index="0" speed="6.54" length="8.01" shape="121.05,63.53 123.11,62.89 124.57,61.75 125.45,60.12 125.74,57.99"/>
    </edge>
    <edge id=":J15_2" function="internal">
        <lane id=":J15_2_0" index="0" speed="13.89" length="12.04" shape="121.05,63.53 124.75,62.95 127.32,62.77 129.88,63.02 133.55,63.73"/>
        <lane id=":J15_2_1" index="1" speed="13.89" length="12.04" shape="121.58,66.68 124.92,66.16 127.25,66.00 129.58,66.22 132.90,66.87"/>
    </edge>
    <edge id=":J17_0" function="internal">
        <lane id=":J17_0_0" index="0" speed="6.80" length="8.79" shape="189.52,119.98 187.13,120.29 185.31,121.23 184.05,122.80 183.37,125.02"/>
    </edge>
    <edge id=":J17_1" function="internal">
        <lane id=":J17_1_0" index="0" speed="6.52" length="8.62" shape="183.98,111.51 184.44,113.81 185.52,115.45 187.22,116.44 189.54,116.78"/>
    </edge>
    <edge id=":J17_2" function="internal">
        <lane id=":J17_2_0" index="0" speed="13.89" length="13.22" shape="183.98,111.51 184.20,115.53 184.22,118.29 183.97,121.04 183.37,125.02"/>
        <lane id=":J17_2_1" index="1" speed="13.89" length="13.22" shape="180.78,111.70 180.99,115.51 181.01,118.13 180.78,120.74 180.21,124.51"/>
    </edge>

    <edge id="-E0" from="J1" to="J0" priority="-1">
        <lane id="-E0_0" index="0" speed="13.89" length="50.54" shape="122.12,228.11 122.20,177.57"/>
    </edge>
    <edge id="-E3" from="J14" to="J10" priority="-1">
        <lane id="-E3_0" index="0" speed="13.89" length="63.27" shape="60.43,118.04 -2.84,117.97"/>
    </edge>
    <edge id="-E4.50" from="J12" to="J15" priority="-1">
        <lane id="-E4.50_0" index="0" speed="13.89" length="48.84" shape="128.84,9.15 128.94,57.98"/>
    </edge>
    <edge id="-E5.60" from="J13" to="J17" priority="-1">
        <lane id="-E5.60_0" index="0" speed="13.89" length="62.82" shape="252.34,120.31 189.52,119.98"/>
    </edge>
    <edge id="E0" from="J0" to="J1" priority="-1">
        <lane id="E0_0" index="0" speed="13.89" length="50.54" shape="125.40,177.57 125.32,228.11"/>
    </edge>
    <edge id="E3" from="J10" to="J14" priority="-1">
        <lane id="E3_0" index="0" speed="13.89" length="63.27" shape="-2.84,114.77 60.43,114.84"/>
    </edge>
    <edge id="E4.50" from="J15" to="J12" priority="-1">
        <lane id="E4.50_0" index="0" speed="13.89" length="48.84" shape="125.74,57.99 125.64,9.15"/>
    </edge>
    <edge id="E5.60" from="J17" to="J13" priority="-1">
        <lane id="E5.60_0" index="0" speed="13.89" length="62.82" shape="189.54,116.78 252.36,117.11"/>
    </edge>
    <edge id="E6" from="J17" to="J0" priority="-1" shape="179.57,118.33 176.85,135.47 171.75,145.19 161.32,156.21 150.39,162.98 139.28,166.51 123.82,167.71">
        <lane id="E6_0" index="0" speed="13.89" length="75.42" shape="183.37,125.02 181.47,137.00 175.69,148.01 164.38,159.96 152.41,167.37 140.20,171.25 130.57,172.00"/>
        <lane id="E6_1" index="1" speed="13.89" length="75.42" shape="180.21,124.51 178.39,135.98 173.06,146.13 162.34,157.46 151.06,164.44 139.59,168.09 130.32,168.81"/>
    </edge>
    <edge id="E6.67" from="J0" to="J14" priority="-1" shape="123.82,167.71 109.92,166.08 97.54,161.61 86.28,152.62 77.46,141.86 72.47,129.98 69.71,116.45">
        <lane id="E6.67_0" index="0" speed="13.89" length="74.73" shape="117.13,171.76 108.81,170.78 95.16,165.86 82.89,156.05 73.31,144.36 67.86,131.40 66.07,122.60"/>
        <lane id="E6.67_1" index="1" speed="13.89" length="74.73" shape="117.50,168.58 109.55,167.65 96.75,163.03 85.15,153.76 76.08,142.69 70.93,130.45 69.20,121.97"/>
    </edge>
    <edge id="E7" from="J14" to="J15" priority="-1" shape="69.71,116.45 72.28,102.16 77.12,92.53 85.07,81.74 96.79,74.61 110.66,70.11 127.36,67.35">
        <lane id="E7_0" index="0" speed="13.89" length="76.83" shape="65.95,110.23 67.68,100.63 73.01,90.01 81.77,78.13 94.77,70.22 109.52,65.43 121.05,63.53"/>
        <lane id="E7_1" index="1" speed="13.89" length="76.83" shape="69.10,110.80 70.75,101.65 75.75,91.69 83.97,80.54 96.12,73.15 110.28,68.55 121.58,66.68"/>
    </edge>
    <edge id="E8" from="J15" to="J17" priority="-1" shape="127.36,67.35 143.97,70.80 155.95,76.02 166.86,83.24 175.04,93.34 178.79,105.08 179.57,118.33">
        <lane id="E8_0" index="0" speed="13.89" length="74.05" shape="133.55,63.73 145.43,66.20 158.25,71.79 170.13,79.64 179.34,91.02 183.55,104.19 183.98,111.51"/>
        <lane id="E8_1" index="1" speed="13.89" length="74.05" shape="132.90,66.87 144.46,69.27 156.72,74.61 167.95,82.04 176.47,92.57 180.38,104.78 180.78,111.70"/>
    </edge>

    <junction id="J0" type="priority" x="123.82" y="167.71" incLanes="-E0_0 E6_0 E6_1" intLanes=":J0_0_0 :J0_1_0 :J0_2_0 :J0_2_1" shape="120.60,177.57 127.00,177.58 127.42,175.49 127.93,174.73 128.65,174.17 129.57,173.79 130.69,173.60 130.20,167.21 127.54,167.42 125.56,167.53 123.93,167.56 122.31,167.48 120.34,167.29 117.69,166.99 116.94,173.35 118.98,174.01 119.69,174.62 120.20,175.41 120.50,176.40">
        <request index="0" response="0100" foes="0100" cont="0"/>
        <request index="1" response="0000" foes="0000" cont="0"/>
        <request index="2" response="0000" foes="0001" cont="0"/>
        <request index="3" response="0000" foes="0000" cont="0"/>
    </junction>
    <junction id="J1" type="dead_end" x="123.72" y="228.11" incLanes="E0_0" intLanes="" shape="123.72,228.11 126.92,228.12 123.72,228.11"/>
    <junction id="J10" type="dead_end" x="-2.84" y="116.37" incLanes="-E3_0" intLanes="" shape="-2.84,116.37 -2.84,119.57 -2.84,116.37"/>
    <junction id="J12" type="dead_end" x="127.24" y="9.15" incLanes="E4.50_0" intLanes="" shape="127.24,9.15 124.04,9.16 127.24,9.15"/>
    <junction id="J13" type="dead_end" x="252.35" y="118.71" incLanes="E5.60_0" intLanes="" shape="252.35,118.71 252.37,115.51 252.35,118.71"/>
    <junction id="J14" type="priority" x="69.71" y="116.45" incLanes="E6.67_0 E6.67_1 E3_0" intLanes=":J14_0_0 :J14_1_0 :J14_1_1 :J14_3_0" shape="64.50,122.92 70.77,121.65 70.33,119.43 70.07,117.76 69.98,116.37 70.05,114.98 70.28,113.31 70.68,111.08 64.38,109.95 63.68,111.78 63.10,112.42 62.36,112.88 61.48,113.15 60.44,113.24 60.43,119.64 62.39,120.01 63.15,120.46 63.75,121.10 64.20,121.92">
        <request index="0" response="0000" foes="0000" cont="0"/>
        <request index="1" response="0000" foes="1000" cont="0"/>
        <request index="2" response="0000" foes="0000" cont="0"/>
        <request index="3" response="0010" foes="0010" cont="0"/>
    </junction>
    <junction id="J15" type="priority" x="127.36" y="67.35" incLanes="-E4.50_0 E7_0 E7_1" intLanes=":J15_0_0 :J15_1_0 :J15_2_0 :J15_2_1" shape="132.58,68.43 133.88,62.17 132.03,61.39 131.38,60.77 130.91,60.00 130.64,59.07 130.54,57.98 124.14,57.99 123.77,59.94 123.31,60.68 122.66,61.26 121.82,61.68 120.79,61.95 121.84,68.26 124.11,67.90 125.81,67.68 127.22,67.61 128.63,67.71 130.32,67.98">
        <request index="0" response="0100" foes="0100" cont="0"/>
        <request index="1" response="0000" foes="0000" cont="0"/>
        <request index="2" response="0000" foes="0001" cont="0"/>
        <request index="3" response="0000" foes="0000" cont="0"/>
    </junction>
    <junction id="J17" type="priority" x="179.57" y="118.33" incLanes="-E5.60_0 E8_0 E8_1" intLanes=":J17_0_0 :J17_1_0 :J17_2_0 :J17_2_1" shape="189.51,121.58 189.55,115.18 187.44,114.76 186.68,114.23 186.11,113.50 185.75,112.56 185.57,111.42 179.19,111.79 179.34,114.45 179.42,116.43 179.41,118.05 179.29,119.68 179.03,121.63 178.63,124.26 184.95,125.27 185.72,123.21 186.38,122.49 187.24,121.98 188.28,121.68">
        <request index="0" response="0100" foes="0100" cont="0"/>
        <request index="1" response="0000" foes="0000" cont="0"/>
        <request index="2" response="0000" foes="0001" cont="0"/>
        <request index="3" response="0000" foes="0000" cont="0"/>
    </junction>

    <connection from="-E0" to="E6.67" fromLane="0" toLane="0" via=":J0_0_0" dir="r" state="m" visibility="9.00"/>
    <connection from="-E4.50" to="E8" fromLane="0" toLane="0" via=":J15_0_0" dir="r" state="m" visibility="9.00"/>
    <connection from="-E5.60" to="E6" fromLane="0" toLane="0" via=":J17_0_0" dir="r" state="m" visibility="9.00"/>
    <connection from="E3" to="E7" fromLane="0" toLane="0" via=":J14_3_0" dir="r" state="m" visibility="9.00"/>
    <connection from="E6" to="E0" fromLane="0" toLane="0" via=":J0_1_0" dir="r" state="M"/>
    <connection from="E6" to="E6.67" fromLane="0" toLane="0" via=":J0_2_0" dir="s" state="M"/>
    <connection from="E6" to="E6.67" fromLane="1" toLane="1" via=":J0_2_1" dir="s" state="M"/>
    <connection from="E6.67" to="-E3" fromLane="0" toLane="0" via=":J14_0_0" dir="r" state="M"/>
    <connection from="E6.67" to="E7" fromLane="0" toLane="0" via=":J14_1_0" dir="s" state="M"/>
    <connection from="E6.67" to="E7" fromLane="1" toLane="1" via=":J14_1_1" dir="s" state="M"/>
    <connection from="E7" to="E4.50" fromLane="0" toLane="0" via=":J15_1_0" dir="r" state="M"/>
    <connection from="E7" to="E8" fromLane="0" toLane="0" via=":J15_2_0" dir="s" state="M"/>
    <connection from="E7" to="E8" fromLane="1" toLane="1" via=":J15_2_1" dir="s" state="M"/>
    <connection from="E8" to="E5.60" fromLane="0" toLane="0" via=":J17_1_0" dir="r" state="M"/>
    <connection from="E8" to="E6" fromLane="0" toLane="0" via=":J17_2_0" dir="s" state="M"/>
    <connection from="E8" to="E6" fromLane="1" toLane="1" via=":J17_2_1" dir="s" state="M"/>

    <connection from=":J0_0" to="E6.67" fromLane="0" toLane="0" dir="r" state="M"/>
    <connection from=":J0_1" to="E0" fromLane="0" toLane="0" dir="r" state="M"/>
    <connection from=":J0_2" to="E6.67" fromLane="0" toLane="0" dir="s" state="M"/>
    <connection from=":J0_2" to="E6.67" fromLane="1" toLane="1" dir="s" state="M"/>
    <connection from=":J14_0" to="-E3" fromLane="0" toLane="0" dir="r" state="M"/>
    <connection from=":J14_1" to="E7" fromLane="0" toLane="0" dir="s" state="M"/>
    <connection from=":J14_1" to="E7" fromLane="1" toLane="1" dir="s" state="M"/>
    <connection from=":J14_3" to="E7" fromLane="0" toLane="0" dir="r" state="M"/>
    <connection from=":J15_0" to="E8" fromLane="0" toLane="0" dir="r" state="M"/>
    <connection from=":J15_1" to="E4.50" fromLane="0" toLane="0" dir="r" state="M"/>
    <connection from=":J15_2" to="E8" fromLane="0" toLane="0" dir="s" state="M"/>
    <connection from=":J15_2" to="E8" fromLane="1" toLane="1" dir="s" state="M"/>
    <connection from=":J17_0" to="E6" fromLane="0" toLane="0" dir="r" state="M"/>
    <connection from=":J17_1" to="E5.60" fromLane="0" toLane="0" dir="r" state="M"/>
    <connection from=":J17_2" to="E6" fromLane="0" toLane="0" dir="s" state="M"/>
    <connection from=":J17_2" to="E6" fromLane="1" toLane="1" dir="s" state="M"/>

    <roundabout nodes="J0 J14 J15 J17" edges="E6 E6.67 E7 E8"/>
    <roundabout nodes="J0 J15 J17" edges="E6 E7 E8"/>

</net>
