<routes>
    <vType id="normal"  laneChangeModel="LC2022"  speedDev="0.15" color="0,1,0" decel="5" accel="4"  maxSpeedLat="0.7" lccooperative="0" lcSpeedGain="10" lcKeepRight="0" sigma="0.5" length="5" />
    <vType id="anomaly"  laneChangeModel="LC2022"  speedDev="0.15"  color="1,0,0" decel="5" accel="4" maxSpeedLat="0.7" lccooperative="0" lcSpeedGain="10" lcKeepRight="0" sigma="0.5" length="5" />

    <flow id="0_normal_0" type="normal" begin="0" end="1000000" probability="0.06" from="E3" to="E4.50"></flow>
    <flow id="1_normal_0" type="normal" begin="0" end="1000000" probability="0.06" from="E3" to="E4.50"></flow>
    <flow id="0_normal_1" type="normal" begin="0" end="1000000" probability="0.06" from="E3" to="E5.60"></flow>
    <flow id="1_normal_1" type="normal" begin="0" end="1000000" probability="0.06" from="E3" to="E5.60"></flow>

    <flow id="0_normal_3" type="normal" begin="0" end="1000000" probability="0.06" from="-E4.50" to="E5.60"></flow>
    <flow id="1_normal_3" type="normal" begin="0" end="1000000" probability="0.06" from="-E4.50" to="E5.60"></flow>
    <flow id="0_normal_5" type="normal" begin="0" end="1000000" probability="0.06" from="-E4.50" to="-E3"></flow>
    <flow id="1_normal_5" type="normal" begin="0" end="1000000" probability="0.06" from="-E4.50" to="-E3"></flow>

    <flow id="0_normal_7" type="normal" begin="0" end="1000000" probability="0.06" from="-E5.60" to="-E3"></flow>
    <flow id="1_normal_7" type="normal" begin="0" end="1000000" probability="0.06" from="-E5.60" to="-E3"></flow>
    <flow id="0_normal_8" type="normal" begin="0" end="1000000" probability="0.06" from="-E5.60" to="E4.50"></flow>
    <flow id="1_normal_8" type="normal" begin="0" end="1000000" probability="0.06" from="-E5.60" to="E4.50"></flow>



    <flow id="0_anomaly_0" type="anomaly" begin="0" end="1000000" probability="0.008" from="E3" to="E4.50"></flow>
    <flow id="1_anomaly_0" type="anomaly" begin="0" end="1000000" probability="0.008" from="E3" to="E4.50"></flow>
    <flow id="0_anomaly_1" type="anomaly" begin="0" end="1000000" probability="0.008" from="E3" to="E5.60"></flow>
    <flow id="1_anomaly_1" type="anomaly" begin="0" end="1000000" probability="0.008" from="E3" to="E5.60"></flow>

    <flow id="0_anomaly_3" type="anomaly" begin="0" end="1000000" probability="0.008" from="-E4.50" to="E5.60"></flow>
    <flow id="1_anomaly_3" type="anomaly" begin="0" end="1000000" probability="0.008" from="-E4.50" to="E5.60"></flow>
    <flow id="0_anomaly_5" type="anomaly" begin="0" end="1000000" probability="0.008" from="-E4.50" to="-E3"></flow>
    <flow id="1_anomaly_5" type="anomaly" begin="0" end="1000000" probability="0.008" from="-E4.50" to="-E3"></flow>     

    <flow id="0_anomaly_7" type="anomaly" begin="0" end="1000000" probability="0.008" from="-E5.60" to="-E3"></flow>
    <flow id="1_anomaly_7" type="anomaly" begin="0" end="1000000" probability="0.008" from="-E5.60" to="-E3"></flow>
    <flow id="0_anomaly_8" type="anomaly" begin="0" end="1000000" probability="0.008" from="-E5.60" to="E4.50"></flow>
    <flow id="1_anomaly_8" type="anomaly" begin="0" end="1000000" probability="0.008" from="-E5.60" to="E4.50"></flow>



</routes>