<?xml version="1.0" encoding="UTF-8"?>

<!-- generated on 2023-04-27 23:31:25 by Eclipse SUMO netedit Version 1.15.0
<configuration xmlns:xsi="http://www.w3.org/2001/XMLSchema-instance" xsi:noNamespaceSchemaLocation="http://sumo.dlr.de/xsd/netconvertConfiguration.xsd">

    <output>
        <output-file value="/home/r10922a06/Desktop/sumo2/sumo/project/controller_attack/roundabout_2.net.xml"/>
    </output>

    <processing>
        <offset.disable-normalization value="true"/>
    </processing>

    <junctions>
        <no-turnarounds value="true"/>
    </junctions>

</configuration>
-->

<net version="1.9" junctionCornerDetail="5" limitTurnSpeed="5.50" xmlns:xsi="http://www.w3.org/2001/XMLSchema-instance" xsi:noNamespaceSchemaLocation="http://sumo.dlr.de/xsd/net_file.xsd">

    <location netOffset="0.00,0.00" convBoundary="0.00,-100.00,200.00,100.00" origBoundary="10000000000.00,10000000000.00,-10000000000.00,-10000000000.00" projParameter="!"/>

    <edge id=":J19_0" function="internal">
        <lane id=":J19_0_0" index="0" speed="7.38" length="8.96" shape="95.20,44.74 94.96,41.96 94.25,39.79 93.05,38.24 91.38,37.29"/>
        <lane id=":J19_0_1" index="1" speed="8.76" length="12.97" shape="98.40,44.74 98.02,40.91 96.90,37.88 95.02,35.67 92.40,34.25"/>
    </edge>
    <edge id=":J19_2" function="internal">
        <lane id=":J19_2_0" index="0" speed="13.89" length="12.34" shape="104.25,38.75 100.51,39.68 97.82,39.57 95.12,38.68 91.38,37.29"/>
        <lane id=":J19_2_1" index="1" speed="12.87" length="12.34" shape="103.24,35.72 100.08,36.47 97.82,36.29 95.55,35.46 92.40,34.25"/>
    </edge>
    <edge id=":J20_0" function="internal">
        <lane id=":J20_0_0" index="0" speed="7.29" length="9.11" shape="137.67,-8.85 138.57,-7.08 140.11,-5.81 142.28,-5.05 145.09,-4.80"/>
        <lane id=":J20_0_1" index="1" speed="8.01" length="11.19" shape="137.67,-8.85 138.91,-5.68 140.57,-3.41 142.62,-2.05 145.09,-1.60"/>
    </edge>
    <edge id=":J20_2" function="internal">
        <lane id=":J20_2_0" index="0" speed="13.89" length="12.83" shape="137.67,-8.85 138.94,-4.92 139.74,-2.09 139.74,0.71 138.61,4.54"/>
        <lane id=":J20_2_1" index="1" speed="13.11" length="12.83" shape="134.59,-7.97 135.71,-4.63 136.47,-2.23 136.55,0.14 135.62,3.39"/>
    </edge>
    <edge id=":J21_0" function="internal">
        <lane id=":J21_0_0" index="0" speed="7.37" length="8.99" shape="91.35,-37.00 93.03,-37.94 94.24,-39.50 94.96,-41.67 95.20,-44.46"/>
        <lane id=":J21_0_1" index="1" speed="8.09" length="11.01" shape="91.35,-37.00 94.43,-38.34 96.64,-40.03 97.96,-42.07 98.40,-44.46"/>
    </edge>
    <edge id=":J21_2" function="internal">
        <lane id=":J21_2_0" index="0" speed="13.89" length="12.42" shape="91.35,-37.00 95.12,-38.38 97.85,-39.25 100.56,-39.35 104.31,-38.37"/>
        <lane id=":J21_2_1" index="1" speed="12.82" length="12.42" shape="92.35,-33.96 95.53,-35.16 97.82,-35.98 100.10,-36.14 103.26,-35.35"/>
    </edge>
    <edge id=":J22_0" function="internal">
        <lane id=":J22_0_0" index="0" speed="12.42" length="11.79" shape="60.61,4.09 59.69,0.50 59.88,-2.12 60.91,-4.70 62.52,-8.22"/>
        <lane id=":J22_0_1" index="1" speed="11.26" length="11.79" shape="63.63,3.03 62.92,0.10 63.17,-2.01 64.11,-4.11 65.47,-6.97"/>
    </edge>
    <edge id=":J22_2" function="internal">
        <lane id=":J22_2_0" index="0" speed="7.64" length="8.91" shape="54.82,-4.80 57.65,-5.01 59.87,-5.65 61.50,-6.72 62.52,-8.22"/>
        <lane id=":J22_2_1" index="1" speed="9.00" length="12.65" shape="54.82,-1.60 58.63,-1.94 61.67,-2.94 63.95,-4.62 65.47,-6.97"/>
    </edge>

    <edge id="E10.34" from="J21" to="J17" priority="-1">
        <lane id="E10.34_0" index="0" speed="13.89" length="55.54" shape="95.20,-44.46 95.20,-100.00"/>
        <lane id="E10.34_1" index="1" speed="13.89" length="55.54" shape="98.40,-44.46 98.40,-100.00"/>
    </edge>
    <edge id="E11" from="J19" to="J22" priority="-1" shape="100.00,35.12 81.86,29.03 70.93,19.00 64.26,0.00">
        <lane id="E11_0" index="0" speed="13.89" length="46.94" shape="91.38,37.29 79.37,33.26 66.80,21.72 60.61,4.09"/>
        <lane id="E11_1" index="1" speed="13.89" length="46.94" shape="92.40,34.25 81.03,30.44 69.55,19.91 63.63,3.03"/>
    </edge>
    <edge id="E11.35" from="J20" to="J18" priority="-1">
        <lane id="E11.35_0" index="0" speed="13.89" length="54.91" shape="145.09,-4.80 200.00,-4.80"/>
        <lane id="E11.35_1" index="1" speed="13.89" length="54.91" shape="145.09,-1.60 200.00,-1.60"/>
    </edge>
    <edge id="E12" from="J22" to="J21" priority="-1" shape="64.26,0.00 71.53,-17.18 80.92,-28.52 100.00,-34.79">
        <lane id="E12_0" index="0" speed="13.89" length="41.83" shape="62.52,-8.22 67.38,-19.70 78.11,-32.65 91.35,-37.00"/>
        <lane id="E12_1" index="1" speed="13.89" length="41.83" shape="65.47,-6.97 70.15,-18.02 79.98,-29.90 92.35,-33.96"/>
    </edge>
    <edge id="E13" from="J21" to="J20" priority="-1" shape="100.00,-34.79 117.56,-28.67 129.85,-18.67 135.22,0.00">
        <lane id="E13_0" index="0" speed="13.89" length="46.27" shape="104.31,-38.37 119.94,-32.93 134.05,-21.44 137.67,-8.85"/>
        <lane id="E13_1" index="1" speed="13.89" length="46.27" shape="103.26,-35.35 118.35,-30.09 131.25,-19.59 134.59,-7.97"/>
    </edge>
    <edge id="E14" from="J20" to="J19" priority="-1" shape="135.22,0.00 128.95,16.22 118.67,28.86 100.00,35.12">
        <lane id="E14_0" index="0" speed="13.89" length="50.35" shape="138.61,4.54 133.15,18.66 121.52,32.97 104.25,38.75"/>
        <lane id="E14_1" index="1" speed="13.89" length="50.35" shape="135.62,3.39 130.35,17.03 119.62,30.23 103.24,35.72"/>
    </edge>
    <edge id="E8" from="J14" to="J22" priority="-1">
        <lane id="E8_0" index="0" speed="13.89" length="54.82" shape="0.00,-4.80 54.82,-4.80"/>
        <lane id="E8_1" index="1" speed="13.89" length="54.82" shape="0.00,-1.60 54.82,-1.60"/>
    </edge>
    <edge id="E9" from="J16" to="J19" priority="-1">
        <lane id="E9_0" index="0" speed="13.89" length="55.26" shape="95.20,100.00 95.20,44.74"/>
        <lane id="E9_1" index="1" speed="13.89" length="55.26" shape="98.40,100.00 98.40,44.74"/>
    </edge>

    <junction id="J14" type="dead_end" x="0.00" y="0.00" incLanes="" intLanes="" shape="0.00,0.00 0.00,-6.40"/>
    <junction id="J16" type="dead_end" x="100.00" y="100.00" incLanes="" intLanes="" shape="100.00,100.00 93.60,100.00"/>
    <junction id="J17" type="dead_end" x="100.00" y="-100.00" incLanes="E10.34_0 E10.34_1" intLanes="" shape="93.60,-100.00 100.00,-100.00"/>
    <junction id="J18" type="dead_end" x="200.00" y="0.00" incLanes="E11.35_0 E11.35_1" intLanes="" shape="200.00,-6.40 200.00,0.00"/>
    <junction id="J19" type="priority" x="100.00" y="35.12" incLanes="E9_0 E9_1 E14_0 E14_1" intLanes=":J19_0_0 :J19_0_1 :J19_2_0 :J19_2_1" shape="93.60,44.74 100.00,44.74 100.53,42.97 101.19,42.19 102.12,41.48 103.31,40.84 104.76,40.27 102.73,34.20 100.69,34.75 99.14,34.88 97.82,34.65 96.50,34.17 94.94,33.50 92.91,32.74 90.87,38.81 92.39,39.87 92.92,40.75 93.30,41.85 93.52,43.18">
        <request index="0" response="0100" foes="0100" cont="0"/>
        <request index="1" response="1100" foes="1100" cont="0"/>
        <request index="2" response="0000" foes="0011" cont="0"/>
        <request index="3" response="0000" foes="0010" cont="0"/>
    </junction>
    <junction id="J20" type="priority" x="135.22" y="0.00" incLanes="E13_0 E13_1" intLanes=":J20_0_0 :J20_0_1 :J20_2_0 :J20_2_1" shape="145.09,0.00 145.09,-6.40 142.19,-6.72 141.09,-7.12 140.23,-7.69 139.60,-8.41 139.20,-9.29 133.05,-7.53 133.76,-5.36 134.39,-3.70 134.83,-2.30 135.00,-0.91 134.80,0.71 134.13,2.81 140.10,5.12 141.53,2.27 142.34,1.28 143.20,0.57 144.12,0.14">
        <request index="0" response="0000" foes="0000" cont="0"/>
        <request index="1" response="0000" foes="0000" cont="0"/>
        <request index="2" response="0000" foes="0000" cont="0"/>
        <request index="3" response="0000" foes="0000" cont="0"/>
    </junction>
    <junction id="J21" type="priority" x="100.00" y="-34.79" incLanes="E12_0 E12_1" intLanes=":J21_0_0 :J21_0_1 :J21_2_0 :J21_2_1" shape="102.73,-33.84 104.84,-39.88 102.15,-41.14 101.21,-41.87 100.54,-42.67 100.13,-43.53 100.00,-44.46 93.60,-44.46 93.29,-41.56 92.91,-40.46 92.38,-39.58 91.69,-38.94 90.85,-38.52 92.85,-32.44 94.90,-33.20 96.47,-33.86 97.80,-34.34 99.13,-34.55 100.69,-34.41">
        <request index="0" response="0000" foes="0000" cont="0"/>
        <request index="1" response="0000" foes="0000" cont="0"/>
        <request index="2" response="0000" foes="0000" cont="0"/>
        <request index="3" response="0000" foes="0000" cont="0"/>
    </junction>
    <junction id="J22" type="priority" x="64.26" y="0.00" incLanes="E11_0 E11_1 E8_0 E8_1" intLanes=":J22_0_0 :J22_0_1 :J22_2_0 :J22_2_1" shape="59.10,4.62 65.13,2.50 64.55,-0.76 64.82,-1.96 65.36,-3.15 66.09,-4.54 66.94,-6.35 61.05,-8.84 59.90,-7.48 58.98,-7.01 57.82,-6.67 56.44,-6.47 54.82,-6.40 54.82,0.00 56.48,0.51 57.22,1.16 57.90,2.05 58.53,3.21">
        <request index="0" response="0000" foes="1100" cont="0"/>
        <request index="1" response="0000" foes="1000" cont="0"/>
        <request index="2" response="0001" foes="0001" cont="0"/>
        <request index="3" response="0011" foes="0011" cont="0"/>
    </junction>

    <connection from="E11" to="E12" fromLane="0" toLane="0" via=":J22_0_0" dir="s" state="M"/>
    <connection from="E11" to="E12" fromLane="1" toLane="1" via=":J22_0_1" dir="s" state="M"/>
    <connection from="E12" to="E10.34" fromLane="0" toLane="0" via=":J21_0_0" dir="r" state="M"/>
    <connection from="E12" to="E10.34" fromLane="0" toLane="1" via=":J21_0_1" dir="r" state="M"/>
    <connection from="E12" to="E13" fromLane="0" toLane="0" via=":J21_2_0" dir="s" state="M"/>
    <connection from="E12" to="E13" fromLane="1" toLane="1" via=":J21_2_1" dir="s" state="M"/>
    <connection from="E13" to="E11.35" fromLane="0" toLane="0" via=":J20_0_0" dir="r" state="M"/>
    <connection from="E13" to="E11.35" fromLane="0" toLane="1" via=":J20_0_1" dir="r" state="M"/>
    <connection from="E13" to="E14" fromLane="0" toLane="0" via=":J20_2_0" dir="s" state="M"/>
    <connection from="E13" to="E14" fromLane="1" toLane="1" via=":J20_2_1" dir="s" state="M"/>
    <connection from="E14" to="E11" fromLane="0" toLane="0" via=":J19_2_0" dir="s" state="M"/>
    <connection from="E14" to="E11" fromLane="1" toLane="1" via=":J19_2_1" dir="s" state="M"/>
    <connection from="E8" to="E12" fromLane="0" toLane="0" via=":J22_2_0" dir="r" state="m" visibility="9.00"/>
    <connection from="E8" to="E12" fromLane="1" toLane="1" via=":J22_2_1" dir="r" state="m" visibility="9.00"/>
    <connection from="E9" to="E11" fromLane="0" toLane="0" via=":J19_0_0" dir="r" state="m" visibility="9.00"/>
    <connection from="E9" to="E11" fromLane="1" toLane="1" via=":J19_0_1" dir="r" state="m" visibility="9.00"/>

    <connection from=":J19_0" to="E11" fromLane="0" toLane="0" dir="r" state="M"/>
    <connection from=":J19_0" to="E11" fromLane="1" toLane="1" dir="r" state="M"/>
    <connection from=":J19_2" to="E11" fromLane="0" toLane="0" dir="s" state="M"/>
    <connection from=":J19_2" to="E11" fromLane="1" toLane="1" dir="s" state="M"/>
    <connection from=":J20_0" to="E11.35" fromLane="0" toLane="0" dir="r" state="M"/>
    <connection from=":J20_0" to="E11.35" fromLane="1" toLane="1" dir="r" state="M"/>
    <connection from=":J20_2" to="E14" fromLane="0" toLane="0" dir="s" state="M"/>
    <connection from=":J20_2" to="E14" fromLane="1" toLane="1" dir="s" state="M"/>
    <connection from=":J21_0" to="E10.34" fromLane="0" toLane="0" dir="r" state="M"/>
    <connection from=":J21_0" to="E10.34" fromLane="1" toLane="1" dir="r" state="M"/>
    <connection from=":J21_2" to="E13" fromLane="0" toLane="0" dir="s" state="M"/>
    <connection from=":J21_2" to="E13" fromLane="1" toLane="1" dir="s" state="M"/>
    <connection from=":J22_0" to="E12" fromLane="0" toLane="0" dir="s" state="M"/>
    <connection from=":J22_0" to="E12" fromLane="1" toLane="1" dir="s" state="M"/>
    <connection from=":J22_2" to="E12" fromLane="0" toLane="0" dir="r" state="M"/>
    <connection from=":J22_2" to="E12" fromLane="1" toLane="1" dir="r" state="M"/>

    <roundabout nodes="J19 J20 J21 J22" edges="E11 E12 E13 E14"/>

</net>
