<?xml version="1.0" encoding="UTF-8"?>

<!-- generated on 2023-05-01 05:29:49 by Eclipse SUMO netedit Version 1.15.0
<configuration xmlns:xsi="http://www.w3.org/2001/XMLSchema-instance" xsi:noNamespaceSchemaLocation="http://sumo.dlr.de/xsd/netconvertConfiguration.xsd">

    <input>
        <sumo-net-file value="/home/r10922a06/Desktop/sumo2/sumo/project/controller_attack/roundabout_3.net.xml"/>
    </input>

    <output>
        <output-file value="/home/r10922a06/Desktop/sumo2/sumo/project/controller_attack/roundabout_3.net.xml"/>
    </output>

    <processing>
        <geometry.min-radius.fix.railways value="false"/>
        <geometry.max-grade.fix value="false"/>
        <offset.disable-normalization value="true"/>
        <lefthand value="0"/>
    </processing>

    <junctions>
        <no-turnarounds value="true"/>
        <junctions.corner-detail value="5"/>
        <junctions.limit-turn-speed value="5.50"/>
        <rectangular-lane-cut value="0"/>
    </junctions>

    <pedestrian>
        <walkingareas value="0"/>
    </pedestrian>

</configuration>
-->

<net version="1.9" junctionCornerDetail="5" limitTurnSpeed="5.50" xmlns:xsi="http://www.w3.org/2001/XMLSchema-instance" xsi:noNamespaceSchemaLocation="http://sumo.dlr.de/xsd/net_file.xsd">

    <location netOffset="0.00,0.00" convBoundary="-5.55,20.95,196.49,212.00" origBoundary="-10000000000.00,-10000000000.00,10000000000.00,10000000000.00" projParameter="!"/>

    <edge id=":J14_0" function="internal">
        <lane id=":J14_0_0" index="0" speed="6.55" length="7.88" shape="65.96,122.63 65.30,120.62 64.17,119.19 62.55,118.33 60.46,118.04"/>
    </edge>
    <edge id=":J14_1" function="internal">
        <lane id=":J14_1_0" index="0" speed="13.89" length="11.49" shape="65.96,122.63 65.34,119.05 65.16,116.53 65.54,114.04 66.58,110.57"/>
        <lane id=":J14_1_1" index="1" speed="13.89" length="11.49" shape="69.11,122.05 68.56,118.94 68.40,116.74 68.72,114.58 69.62,111.57"/>
    </edge>
    <edge id=":J14_3" function="internal">
        <lane id=":J14_3_0" index="0" speed="6.98" length="8.03" shape="60.47,114.84 62.62,114.58 64.35,113.78 65.67,112.44 66.58,110.57"/>
    </edge>
    <edge id=":J15_0" function="internal">
        <lane id=":J15_0_0" index="0" speed="6.46" length="9.03" shape="159.20,70.16 157.94,72.30 157.68,74.32 158.43,76.21 160.17,77.98"/>
    </edge>
    <edge id=":J15_1" function="internal">
        <lane id=":J15_1_0" index="0" speed="7.52" length="9.67" shape="148.18,70.87 150.51,71.43 152.71,71.16 154.78,70.08 156.70,68.17"/>
    </edge>
    <edge id=":J15_2" function="internal">
        <lane id=":J15_2_0" index="0" speed="13.89" length="13.60" shape="148.18,70.87 152.00,72.49 154.52,73.82 156.86,75.46 160.17,77.98"/>
        <lane id=":J15_2_1" index="1" speed="13.89" length="13.60" shape="146.98,73.83 150.56,75.36 152.93,76.61 155.13,78.16 158.23,80.53"/>
    </edge>
    <edge id=":J17_0" function="internal">
        <lane id=":J17_0_0" index="0" speed="7.18" length="8.50" shape="161.39,172.85 159.76,171.20 157.97,170.23 156.01,169.97 153.88,170.40"/>
    </edge>
    <edge id=":J17_1" function="internal">
        <lane id=":J17_1_0" index="0" speed="6.53" length="8.24" shape="164.43,163.51 163.08,165.28 162.55,167.10 162.83,168.97 163.92,170.91"/>
    </edge>
    <edge id=":J17_2" function="internal">
        <lane id=":J17_2_0" index="0" speed="13.89" length="12.07" shape="164.43,163.51 161.73,166.16 159.71,167.83 157.41,169.06 153.88,170.40"/>
        <lane id=":J17_2_1" index="1" speed="13.89" length="12.07" shape="162.18,161.23 159.78,163.59 157.99,165.08 155.95,166.19 152.82,167.38"/>
    </edge>

    <edge id="-E3" from="J14" to="J10" priority="-1">
        <lane id="-E3_0" index="0" speed="13.89" length="66.01" shape="60.46,118.04 -5.55,117.97"/>
    </edge>
    <edge id="-E4.50" from="J12" to="J15" priority="-1">
        <lane id="-E4.50_0" index="0" speed="13.89" length="61.72" shape="197.74,21.95 159.20,70.16"/>
    </edge>
    <edge id="-E5.60" from="J13" to="J17" priority="-1">
        <lane id="-E5.60_0" index="0" speed="13.89" length="50.58" shape="192.19,212.97 161.39,172.85"/>
    </edge>
    <edge id="E3" from="J10" to="J14" priority="-1">
        <lane id="E3_0" index="0" speed="13.89" length="66.01" shape="-5.55,114.77 60.47,114.84"/>
    </edge>
    <edge id="E4.50" from="J15" to="J12" priority="-1">
        <lane id="E4.50_0" index="0" speed="13.89" length="61.72" shape="156.70,68.17 195.24,19.95"/>
    </edge>
    <edge id="E5.60" from="J17" to="J13" priority="-1">
        <lane id="E5.60_0" index="0" speed="13.89" length="50.58" shape="163.92,170.91 194.73,211.03"/>
    </edge>
    <edge id="E6" from="J17" to="J14" priority="-1" shape="156.82,164.28 138.95,170.54 120.99,170.98 101.12,165.02 83.55,150.81 73.14,135.13 69.71,116.45">
        <lane id="E6_0" index="0" speed="13.89" length="113.44" shape="153.88,170.40 139.82,175.32 120.34,175.80 98.84,169.35 79.96,154.08 68.60,136.96 65.96,122.63"/>
        <lane id="E6_1" index="1" speed="13.89" length="113.44" shape="152.82,167.38 139.24,172.13 120.77,172.59 100.36,166.46 82.35,151.90 71.63,135.74 69.11,122.05"/>
    </edge>
    <edge id="E7" from="J14" to="J15" priority="-1" shape="69.71,116.45 75.77,97.86 86.72,84.13 102.14,75.36 119.53,70.80 136.54,71.34 151.41,77.35">
        <lane id="E7_0" index="0" speed="13.89" length="101.14" shape="66.58,110.57 71.48,95.55 83.54,80.41 100.31,70.88 118.99,65.98 137.55,66.57 148.18,70.87"/>
        <lane id="E7_1" index="1" speed="13.89" length="101.14" shape="69.62,111.57 74.34,97.09 85.66,82.89 101.53,73.87 119.35,69.19 136.88,69.75 146.98,73.83"/>
    </edge>
    <edge id="E8" from="J15" to="J17" priority="-1" shape="151.41,77.35 167.36,89.48 174.74,105.86 177.63,123.26 175.53,140.11 167.04,154.19 156.82,164.28">
        <lane id="E8_0" index="0" speed="13.89" length="95.66" shape="160.17,77.98 171.24,86.40 179.37,104.46 182.48,123.16 180.17,141.72 170.84,157.18 164.43,163.51"/>
        <lane id="E8_1" index="1" speed="13.89" length="95.66" shape="158.23,80.53 168.65,88.45 176.28,105.39 179.25,123.23 177.08,140.65 168.31,155.19 162.18,161.23"/>
    </edge>

    <junction id="J10" type="dead_end" x="-5.55" y="116.37" incLanes="-E3_0" intLanes="" shape="-5.55,116.37 -5.55,119.57 -5.55,116.37"/>
    <junction id="J12" type="dead_end" x="196.49" y="20.95" incLanes="E4.50_0" intLanes="" shape="196.49,20.95 193.99,18.95 196.49,20.95"/>
    <junction id="J13" type="dead_end" x="193.46" y="212.00" incLanes="E5.60_0" intLanes="" shape="193.46,212.00 196.00,210.05 193.46,212.00"/>
    <junction id="J14" type="priority" x="69.71" y="116.45" incLanes="E6_0 E6_1 E3_0" intLanes=":J14_0_0 :J14_1_0 :J14_1_1 :J14_3_0" shape="64.39,122.92 70.69,121.76 70.31,119.71 70.08,118.15 70.02,116.85 70.16,115.57 70.52,114.05 71.14,112.06 65.06,110.08 64.09,111.84 63.39,112.45 62.56,112.89 61.58,113.15 60.47,113.24 60.46,119.64 62.38,120.01 63.11,120.46 63.69,121.10 64.11,121.92">
        <request index="0" response="0000" foes="0000" cont="0"/>
        <request index="1" response="0000" foes="1000" cont="0"/>
        <request index="2" response="0000" foes="0000" cont="0"/>
        <request index="3" response="0010" foes="0010" cont="0"/>
    </junction>
    <junction id="J15" type="priority" x="151.41" y="77.35" incLanes="-E4.50_0 E7_0 E7_1" intLanes=":J15_0_0 :J15_1_0 :J15_2_0 :J15_2_1" shape="157.26,81.80 161.14,76.71 159.65,75.02 159.38,74.11 159.42,73.17 159.78,72.18 160.45,71.16 155.45,67.17 153.39,69.06 152.30,69.58 151.17,69.80 149.99,69.74 148.78,69.38 146.38,75.32 148.87,76.35 150.69,77.20 152.13,78.01 153.51,78.94 155.11,80.15">
        <request index="0" response="0100" foes="0100" cont="0"/>
        <request index="1" response="0000" foes="0000" cont="0"/>
        <request index="2" response="0000" foes="0001" cont="0"/>
        <request index="3" response="0000" foes="0000" cont="0"/>
    </junction>
    <junction id="J17" type="priority" x="156.82" y="164.28" incLanes="-E5.60_0 E8_0 E8_1" intLanes=":J17_0_0 :J17_1_0 :J17_2_0 :J17_2_1" shape="160.12,173.83 165.19,169.93 164.28,168.10 164.21,167.21 164.40,166.34 164.85,165.48 165.56,164.65 161.06,160.09 159.46,161.68 158.23,162.84 157.13,163.71 155.94,164.42 154.40,165.09 152.29,165.87 154.41,171.91 156.53,171.60 157.50,171.80 158.43,172.24 159.30,172.92">
        <request index="0" response="0100" foes="0100" cont="0"/>
        <request index="1" response="0000" foes="0000" cont="0"/>
        <request index="2" response="0000" foes="0001" cont="0"/>
        <request index="3" response="0000" foes="0000" cont="0"/>
    </junction>

    <connection from="-E4.50" to="E8" fromLane="0" toLane="0" via=":J15_0_0" dir="r" state="m" visibility="9.00"/>
    <connection from="-E5.60" to="E6" fromLane="0" toLane="0" via=":J17_0_0" dir="r" state="m" visibility="9.00"/>
    <connection from="E3" to="E7" fromLane="0" toLane="0" via=":J14_3_0" dir="r" state="m" visibility="9.00"/>
    <connection from="E6" to="-E3" fromLane="0" toLane="0" via=":J14_0_0" dir="r" state="M"/>
    <connection from="E6" to="E7" fromLane="0" toLane="0" via=":J14_1_0" dir="s" state="M"/>
    <connection from="E6" to="E7" fromLane="1" toLane="1" via=":J14_1_1" dir="s" state="M"/>
    <connection from="E7" to="E4.50" fromLane="0" toLane="0" via=":J15_1_0" dir="r" state="M"/>
    <connection from="E7" to="E8" fromLane="0" toLane="0" via=":J15_2_0" dir="s" state="M"/>
    <connection from="E7" to="E8" fromLane="1" toLane="1" via=":J15_2_1" dir="s" state="M"/>
    <connection from="E8" to="E5.60" fromLane="0" toLane="0" via=":J17_1_0" dir="r" state="M"/>
    <connection from="E8" to="E6" fromLane="0" toLane="0" via=":J17_2_0" dir="s" state="M"/>
    <connection from="E8" to="E6" fromLane="1" toLane="1" via=":J17_2_1" dir="s" state="M"/>

    <connection from=":J14_0" to="-E3" fromLane="0" toLane="0" dir="r" state="M"/>
    <connection from=":J14_1" to="E7" fromLane="0" toLane="0" dir="s" state="M"/>
    <connection from=":J14_1" to="E7" fromLane="1" toLane="1" dir="s" state="M"/>
    <connection from=":J14_3" to="E7" fromLane="0" toLane="0" dir="r" state="M"/>
    <connection from=":J15_0" to="E8" fromLane="0" toLane="0" dir="r" state="M"/>
    <connection from=":J15_1" to="E4.50" fromLane="0" toLane="0" dir="r" state="M"/>
    <connection from=":J15_2" to="E8" fromLane="0" toLane="0" dir="s" state="M"/>
    <connection from=":J15_2" to="E8" fromLane="1" toLane="1" dir="s" state="M"/>
    <connection from=":J17_0" to="E6" fromLane="0" toLane="0" dir="r" state="M"/>
    <connection from=":J17_1" to="E5.60" fromLane="0" toLane="0" dir="r" state="M"/>
    <connection from=":J17_2" to="E6" fromLane="0" toLane="0" dir="s" state="M"/>
    <connection from=":J17_2" to="E6" fromLane="1" toLane="1" dir="s" state="M"/>

    <roundabout nodes="J14 J15 J17" edges="E6 E7 E8"/>

</net>
