<?xml version="1.0" encoding="UTF-8"?>

<!-- generated on 2023-05-10 22:55:49 by Eclipse SUMO netedit Version 1.15.0
<configuration xmlns:xsi="http://www.w3.org/2001/XMLSchema-instance" xsi:noNamespaceSchemaLocation="http://sumo.dlr.de/xsd/netconvertConfiguration.xsd">

    <input>
        <sumo-net-file value="/home/r10922a06/Desktop/sumo2/sumo/project/controller_attack/two_way.net.xml"/>
    </input>

    <output>
        <output-file value="/home/r10922a06/Desktop/sumo2/sumo/project/controller_attack/two_way.net.xml"/>
    </output>

    <processing>
        <geometry.min-radius.fix.railways value="false"/>
        <geometry.max-grade.fix value="false"/>
        <offset.disable-normalization value="true"/>
        <lefthand value="0"/>
    </processing>

    <junctions>
        <no-internal-links value="true"/>
        <no-turnarounds value="true"/>
        <junctions.corner-detail value="5"/>
        <junctions.limit-turn-speed value="5.50"/>
        <rectangular-lane-cut value="0"/>
    </junctions>

    <pedestrian>
        <walkingareas value="0"/>
    </pedestrian>

</configuration>
-->

<net version="1.9" junctionCornerDetail="5" limitTurnSpeed="5.50" xmlns:xsi="http://www.w3.org/2001/XMLSchema-instance" xsi:noNamespaceSchemaLocation="http://sumo.dlr.de/xsd/net_file.xsd">

    <location netOffset="0.00,0.00" convBoundary="-3.23,0.00,0.00,100.16" origBoundary="-10000000000.00,-10000000000.00,10000000000.00,10000000000.00" projParameter="!"/>

    <edge id="-E0" from="J1" to="J0" priority="-1">
        <lane id="-E0_0" index="0" speed="13.89" length="100.00" shape="1.60,0.00 1.60,100.00"/>
    </edge>
    <edge id="E0" from="J0" to="J1" priority="-1">
        <lane id="E0_0" index="0" speed="13.89" length="100.00" shape="-4.80,100.00 -4.80,0.00"/>
        <lane id="E0_1" index="1" speed="13.89" length="100.00" shape="-1.60,100.00 -1.60,0.00"/>
    </edge>
    <edge id="E1" from="J3" to="J4" priority="-1">
        <lane id="E1_0" index="0" speed="13.89" length="100.00" shape="-1.63,0.16 -1.63,100.16"/>
    </edge>

    <junction id="J0" type="dead_end" x="0.00" y="100.00" incLanes="-E0_0" intLanes="" shape="0.00,100.00 3.20,100.00 0.00,100.00"/>
    <junction id="J1" type="dead_end" x="0.00" y="0.00" incLanes="E0_0 E0_1" intLanes="" shape="0.00,0.00 -6.40,0.00 0.00,0.00"/>
    <junction id="J3" type="dead_end" x="-3.23" y="0.16" incLanes="" intLanes="" shape="-3.23,0.16 -0.03,0.16"/>
    <junction id="J4" type="dead_end" x="-3.23" y="100.16" incLanes="E1_0" intLanes="" shape="-0.03,100.16 -3.23,100.16"/>

</net>
